$ -------------------------------------------------------------------- $
$ WAVEWATCH III Initial conditions input file $
$--------------------------------------------------------------------- $
$
$ type of initial field ITYPE ---------------------------------------- $
  2
$
$ ITYPE = 1 ---------------------------------------------------------- $
$   fp        sip     thm    ncos   xm     six    ym    siy   hmax
$    0.1      0.001    280.   100    600.   200.   600.  1.E10   2.0
$
$ ITYPE = 2 ---------------------------------------------------------- $
$   alfa    peak_f  mean_dir  gamma   sigA   sigB   Xm   spread   Ym    spread
    0.0016  0.1     280.      3.3     0.07    0.09  600.  100.    600.    100.
$    0.0016  0.1     280.      3.3     0.07    0.09  600.  5.E3    600.    5.E3
$    0.0010  0.1     280.      3.3     0.07    0.09  600.   100.    600.  1.E10
$ ITYPE = 3 ---------------------------------------------------------- $
$ ITYPE = 4 ---------------------------------------------------------- $
$ User-defined spectrum
$ - Scale factor., defaults to 1 if less than or equal 0.
$ - Spectrum F(f,theta) (single read statement) 
$ (should have the resolution specified in ww3_grid.inp). 
$
$
$
$
$ ITYPE = 5 ---------------------------------------------------------- $
$
$ -------------------------------------------------------------------- $
$ End of input file $
$ -------------------------------------------------------------------- $
